* NGSPICE file created from i2c_master_controller.ext - technology: sky130A

* Black-box entry subcircuit for sky130_fd_sc_hd__decap_6 abstract view
.subckt sky130_fd_sc_hd__decap_6 VGND VNB VPB VPWR
.ends

* Black-box entry subcircuit for sky130_fd_sc_hd__dfrtp_4 abstract view
.subckt sky130_fd_sc_hd__dfrtp_4 CLK D RESET_B VGND VNB VPB VPWR Q
.ends

* Black-box entry subcircuit for sky130_fd_sc_hd__fill_1 abstract view
.subckt sky130_fd_sc_hd__fill_1 VGND VNB VPB VPWR
.ends

* Black-box entry subcircuit for sky130_fd_sc_hd__fill_2 abstract view
.subckt sky130_fd_sc_hd__fill_2 VGND VNB VPB VPWR
.ends

* Black-box entry subcircuit for sky130_fd_sc_hd__dfxtp_1 abstract view
.subckt sky130_fd_sc_hd__dfxtp_1 CLK D VGND VNB VPB VPWR Q
.ends

* Black-box entry subcircuit for sky130_fd_sc_hd__inv_2 abstract view
.subckt sky130_fd_sc_hd__inv_2 A VGND VNB VPB VPWR Y
.ends

* Black-box entry subcircuit for sky130_ef_sc_hd__decap_12 abstract view
.subckt sky130_ef_sc_hd__decap_12 VPWR VGND VPB VNB
.ends

* Black-box entry subcircuit for sky130_fd_sc_hd__decap_4 abstract view
.subckt sky130_fd_sc_hd__decap_4 VGND VNB VPB VPWR
.ends

* Black-box entry subcircuit for sky130_fd_sc_hd__tapvpwrvgnd_1 abstract view
.subckt sky130_fd_sc_hd__tapvpwrvgnd_1 VGND VPWR
.ends

* Black-box entry subcircuit for sky130_fd_sc_hd__decap_3 abstract view
.subckt sky130_fd_sc_hd__decap_3 VGND VNB VPB VPWR
.ends

* Black-box entry subcircuit for sky130_fd_sc_hd__buf_2 abstract view
.subckt sky130_fd_sc_hd__buf_2 A VGND VNB VPB VPWR X
.ends

* Black-box entry subcircuit for sky130_fd_sc_hd__dfrtp_1 abstract view
.subckt sky130_fd_sc_hd__dfrtp_1 CLK D RESET_B VGND VNB VPB VPWR Q
.ends

* Black-box entry subcircuit for sky130_fd_sc_hd__decap_8 abstract view
.subckt sky130_fd_sc_hd__decap_8 VGND VNB VPB VPWR
.ends

* Black-box entry subcircuit for sky130_fd_sc_hd__or2_1 abstract view
.subckt sky130_fd_sc_hd__or2_1 A B VGND VNB VPB VPWR X
.ends

* Black-box entry subcircuit for sky130_fd_sc_hd__dfxtp_2 abstract view
.subckt sky130_fd_sc_hd__dfxtp_2 CLK D VGND VNB VPB VPWR Q
.ends

* Black-box entry subcircuit for sky130_fd_sc_hd__nand2_1 abstract view
.subckt sky130_fd_sc_hd__nand2_1 A B VGND VNB VPB VPWR Y
.ends

* Black-box entry subcircuit for sky130_fd_sc_hd__nand2_4 abstract view
.subckt sky130_fd_sc_hd__nand2_4 A B VGND VNB VPB VPWR Y
.ends

* Black-box entry subcircuit for sky130_fd_sc_hd__clkbuf_4 abstract view
.subckt sky130_fd_sc_hd__clkbuf_4 A VGND VNB VPB VPWR X
.ends

* Black-box entry subcircuit for sky130_fd_sc_hd__mux2_1 abstract view
.subckt sky130_fd_sc_hd__mux2_1 A0 A1 S VGND VNB VPB VPWR X
.ends

* Black-box entry subcircuit for sky130_fd_sc_hd__dfstp_1 abstract view
.subckt sky130_fd_sc_hd__dfstp_1 CLK D SET_B VGND VNB VPB VPWR Q
.ends

* Black-box entry subcircuit for sky130_fd_sc_hd__nor2_1 abstract view
.subckt sky130_fd_sc_hd__nor2_1 A B VGND VNB VPB VPWR Y
.ends

* Black-box entry subcircuit for sky130_fd_sc_hd__nor3_1 abstract view
.subckt sky130_fd_sc_hd__nor3_1 A B C VGND VNB VPB VPWR Y
.ends

* Black-box entry subcircuit for sky130_fd_sc_hd__a311o_1 abstract view
.subckt sky130_fd_sc_hd__a311o_1 A1 A2 A3 B1 C1 VGND VNB VPB VPWR X
.ends

* Black-box entry subcircuit for sky130_fd_sc_hd__a32o_1 abstract view
.subckt sky130_fd_sc_hd__a32o_1 A1 A2 A3 B1 B2 VGND VNB VPB VPWR X
.ends

* Black-box entry subcircuit for sky130_fd_sc_hd__a21o_1 abstract view
.subckt sky130_fd_sc_hd__a21o_1 A1 A2 B1 VGND VNB VPB VPWR X
.ends

* Black-box entry subcircuit for sky130_fd_sc_hd__or3_1 abstract view
.subckt sky130_fd_sc_hd__or3_1 A B C VGND VNB VPB VPWR X
.ends

* Black-box entry subcircuit for sky130_fd_sc_hd__a31o_1 abstract view
.subckt sky130_fd_sc_hd__a31o_1 A1 A2 A3 B1 VGND VNB VPB VPWR X
.ends

* Black-box entry subcircuit for sky130_fd_sc_hd__clkbuf_16 abstract view
.subckt sky130_fd_sc_hd__clkbuf_16 A VGND VNB VPB VPWR X
.ends

* Black-box entry subcircuit for sky130_fd_sc_hd__o21bai_1 abstract view
.subckt sky130_fd_sc_hd__o21bai_1 A1 A2 B1_N VGND VNB VPB VPWR Y
.ends

* Black-box entry subcircuit for sky130_fd_sc_hd__o22a_1 abstract view
.subckt sky130_fd_sc_hd__o22a_1 A1 A2 B1 B2 VGND VNB VPB VPWR X
.ends

* Black-box entry subcircuit for sky130_fd_sc_hd__and2b_1 abstract view
.subckt sky130_fd_sc_hd__and2b_1 A_N B VGND VNB VPB VPWR X
.ends

* Black-box entry subcircuit for sky130_fd_sc_hd__and3_1 abstract view
.subckt sky130_fd_sc_hd__and3_1 A B C VGND VNB VPB VPWR X
.ends

* Black-box entry subcircuit for sky130_fd_sc_hd__o21a_1 abstract view
.subckt sky130_fd_sc_hd__o21a_1 A1 A2 B1 VGND VNB VPB VPWR X
.ends

* Black-box entry subcircuit for sky130_fd_sc_hd__nand2_2 abstract view
.subckt sky130_fd_sc_hd__nand2_2 A B VGND VNB VPB VPWR Y
.ends

* Black-box entry subcircuit for sky130_fd_sc_hd__a22o_1 abstract view
.subckt sky130_fd_sc_hd__a22o_1 A1 A2 B1 B2 VGND VNB VPB VPWR X
.ends

* Black-box entry subcircuit for sky130_fd_sc_hd__and2_1 abstract view
.subckt sky130_fd_sc_hd__and2_1 A B VGND VNB VPB VPWR X
.ends

* Black-box entry subcircuit for sky130_fd_sc_hd__nor2_2 abstract view
.subckt sky130_fd_sc_hd__nor2_2 A B VGND VNB VPB VPWR Y
.ends

* Black-box entry subcircuit for sky130_fd_sc_hd__or3_2 abstract view
.subckt sky130_fd_sc_hd__or3_2 A B C VGND VNB VPB VPWR X
.ends

* Black-box entry subcircuit for sky130_fd_sc_hd__o21ba_1 abstract view
.subckt sky130_fd_sc_hd__o21ba_1 A1 A2 B1_N VGND VNB VPB VPWR X
.ends

* Black-box entry subcircuit for sky130_fd_sc_hd__clkbuf_1 abstract view
.subckt sky130_fd_sc_hd__clkbuf_1 A VGND VNB VPB VPWR X
.ends

* Black-box entry subcircuit for sky130_fd_sc_hd__or2_2 abstract view
.subckt sky130_fd_sc_hd__or2_2 A B VGND VNB VPB VPWR X
.ends

* Black-box entry subcircuit for sky130_fd_sc_hd__a21oi_1 abstract view
.subckt sky130_fd_sc_hd__a21oi_1 A1 A2 B1 VGND VNB VPB VPWR Y
.ends

* Black-box entry subcircuit for sky130_fd_sc_hd__a2bb2o_1 abstract view
.subckt sky130_fd_sc_hd__a2bb2o_1 A1_N A2_N B1 B2 VGND VNB VPB VPWR X
.ends

* Black-box entry subcircuit for sky130_fd_sc_hd__clkbuf_2 abstract view
.subckt sky130_fd_sc_hd__clkbuf_2 A VGND VNB VPB VPWR X
.ends

* Black-box entry subcircuit for sky130_fd_sc_hd__dfrtp_2 abstract view
.subckt sky130_fd_sc_hd__dfrtp_2 CLK D RESET_B VGND VNB VPB VPWR Q
.ends

* Black-box entry subcircuit for sky130_fd_sc_hd__a31oi_4 abstract view
.subckt sky130_fd_sc_hd__a31oi_4 A1 A2 A3 B1 VGND VNB VPB VPWR Y
.ends

* Black-box entry subcircuit for sky130_fd_sc_hd__buf_4 abstract view
.subckt sky130_fd_sc_hd__buf_4 A VGND VNB VPB VPWR X
.ends

* Black-box entry subcircuit for sky130_fd_sc_hd__o31a_1 abstract view
.subckt sky130_fd_sc_hd__o31a_1 A1 A2 A3 B1 VGND VNB VPB VPWR X
.ends

* Black-box entry subcircuit for sky130_fd_sc_hd__a221oi_1 abstract view
.subckt sky130_fd_sc_hd__a221oi_1 A1 A2 B1 B2 C1 VGND VNB VPB VPWR Y
.ends

* Black-box entry subcircuit for sky130_fd_sc_hd__dlygate4sd3_1 abstract view
.subckt sky130_fd_sc_hd__dlygate4sd3_1 A VGND VNB VPB VPWR X
.ends

* Black-box entry subcircuit for sky130_fd_sc_hd__nor4_1 abstract view
.subckt sky130_fd_sc_hd__nor4_1 A B C D VGND VNB VPB VPWR Y
.ends

* Black-box entry subcircuit for sky130_fd_sc_hd__ebufn_8 abstract view
.subckt sky130_fd_sc_hd__ebufn_8 A TE_B VGND VNB VPB VPWR Z
.ends

* Black-box entry subcircuit for sky130_fd_sc_hd__a221o_1 abstract view
.subckt sky130_fd_sc_hd__a221o_1 A1 A2 B1 B2 C1 VGND VNB VPB VPWR X
.ends

* Black-box entry subcircuit for sky130_fd_sc_hd__buf_1 abstract view
.subckt sky130_fd_sc_hd__buf_1 A VGND VNB VPB VPWR X
.ends

* Black-box entry subcircuit for sky130_fd_sc_hd__xnor2_1 abstract view
.subckt sky130_fd_sc_hd__xnor2_1 A B VGND VNB VPB VPWR Y
.ends

* Black-box entry subcircuit for sky130_fd_sc_hd__o221a_1 abstract view
.subckt sky130_fd_sc_hd__o221a_1 A1 A2 B1 B2 C1 VGND VNB VPB VPWR X
.ends

* Black-box entry subcircuit for sky130_fd_sc_hd__and3b_1 abstract view
.subckt sky130_fd_sc_hd__and3b_1 A_N B C VGND VNB VPB VPWR X
.ends

* Black-box entry subcircuit for sky130_fd_sc_hd__o211a_1 abstract view
.subckt sky130_fd_sc_hd__o211a_1 A1 A2 B1 C1 VGND VNB VPB VPWR X
.ends

* Black-box entry subcircuit for sky130_fd_sc_hd__or4bb_1 abstract view
.subckt sky130_fd_sc_hd__or4bb_1 A B C_N D_N VGND VNB VPB VPWR X
.ends

* Black-box entry subcircuit for sky130_fd_sc_hd__or4_1 abstract view
.subckt sky130_fd_sc_hd__or4_1 A B C D VGND VNB VPB VPWR X
.ends

* Black-box entry subcircuit for sky130_fd_sc_hd__o32a_1 abstract view
.subckt sky130_fd_sc_hd__o32a_1 A1 A2 A3 B1 B2 VGND VNB VPB VPWR X
.ends

* Black-box entry subcircuit for sky130_fd_sc_hd__nand2b_2 abstract view
.subckt sky130_fd_sc_hd__nand2b_2 A_N B VGND VNB VPB VPWR Y
.ends

* Black-box entry subcircuit for sky130_fd_sc_hd__or3b_1 abstract view
.subckt sky130_fd_sc_hd__or3b_1 A B C_N VGND VNB VPB VPWR X
.ends

* Black-box entry subcircuit for sky130_fd_sc_hd__nand2b_1 abstract view
.subckt sky130_fd_sc_hd__nand2b_1 A_N B VGND VNB VPB VPWR Y
.ends

.subckt i2c_master_controller VGND VPWR address[0] address[1] address[2] address[3]
+ address[4] address[5] address[6] clk data_in[0] data_in[1] data_in[2] data_in[3]
+ data_in[4] data_in[5] data_in[6] data_in[7] data_out[0] data_out[1] data_out[2]
+ data_out[3] data_out[4] data_out[5] data_out[6] data_out[7] enable i2c_scl i2c_sda
+ ready rst rw
XFILLER_22_133 VGND VGND VPWR VPWR sky130_fd_sc_hd__decap_6
X_294_ net35 _012_ _023_ VGND VGND VPWR VPWR state\[9\] sky130_fd_sc_hd__dfrtp_4
XFILLER_13_111 VGND VGND VPWR VPWR sky130_fd_sc_hd__fill_1
XFILLER_6_118 VGND VGND VPWR VPWR sky130_fd_sc_hd__fill_2
XFILLER_10_114 VGND VGND VPWR VPWR sky130_fd_sc_hd__fill_1
X_277_ net36 _038_ VGND VGND VPWR VPWR net19 sky130_fd_sc_hd__dfxtp_1
X_200_ _107_ VGND VGND VPWR VPWR _108_ sky130_fd_sc_hd__inv_2
XFILLER_0_57 VPWR VGND VPWR VGND sky130_ef_sc_hd__decap_12
XFILLER_0_24 VGND VGND VPWR VPWR sky130_fd_sc_hd__decap_4
XTAP_TAPCELL_ROW_18_97 VGND VPWR sky130_fd_sc_hd__tapvpwrvgnd_1
XFILLER_18_75 VGND VGND VPWR VPWR sky130_fd_sc_hd__decap_4
XFILLER_18_53 VGND VGND VPWR VPWR sky130_fd_sc_hd__decap_3
XFILLER_20_98 VGND VGND VPWR VPWR sky130_fd_sc_hd__decap_4
XFILLER_17_109 VGND VGND VPWR VPWR sky130_fd_sc_hd__decap_3
XFILLER_15_76 VPWR VGND VPWR VGND sky130_ef_sc_hd__decap_12
XFILLER_15_65 VGND VGND VPWR VPWR sky130_fd_sc_hd__decap_3
XFILLER_15_54 VGND VGND VPWR VPWR sky130_fd_sc_hd__fill_2
XFILLER_16_120 VGND VGND VPWR VPWR sky130_fd_sc_hd__decap_3
Xoutput20 net20 VGND VGND VPWR VPWR data_out[1] sky130_fd_sc_hd__buf_2
XTAP_TAPCELL_ROW_2_57 VGND VPWR sky130_fd_sc_hd__tapvpwrvgnd_1
XFILLER_3_57 VGND VGND VPWR VPWR sky130_fd_sc_hd__fill_1
X_293_ net38 _011_ _022_ VGND VGND VPWR VPWR state\[8\] sky130_fd_sc_hd__dfrtp_1
X_276_ net36 _037_ VGND VGND VPWR VPWR counter\[3\] sky130_fd_sc_hd__dfxtp_1
XPHY_EDGE_ROW_21_Right_21 VGND VGND VPWR VPWR sky130_fd_sc_hd__decap_3
XPHY_EDGE_ROW_12_Right_12 VGND VGND VPWR VPWR sky130_fd_sc_hd__decap_3
XFILLER_0_69 VPWR VGND VPWR VGND sky130_ef_sc_hd__decap_12
X_259_ net39 VGND VGND VPWR VPWR _016_ sky130_fd_sc_hd__inv_2
XTAP_TAPCELL_ROW_18_98 VGND VPWR sky130_fd_sc_hd__tapvpwrvgnd_1
XFILLER_15_7 VGND VGND VPWR VPWR sky130_fd_sc_hd__decap_6
XPHY_EDGE_ROW_12_Left_37 VGND VGND VPWR VPWR sky130_fd_sc_hd__decap_3
XFILLER_6_79 VGND VGND VPWR VPWR sky130_fd_sc_hd__fill_2
XFILLER_15_33 VGND VGND VPWR VPWR sky130_fd_sc_hd__decap_4
XFILLER_15_22 VGND VGND VPWR VPWR sky130_fd_sc_hd__decap_6
XPHY_EDGE_ROW_6_Right_6 VGND VGND VPWR VPWR sky130_fd_sc_hd__decap_3
Xoutput21 net21 VGND VGND VPWR VPWR data_out[2] sky130_fd_sc_hd__buf_2
XFILLER_15_88 VGND VGND VPWR VPWR sky130_fd_sc_hd__decap_8
XTAP_TAPCELL_ROW_2_58 VGND VPWR sky130_fd_sc_hd__tapvpwrvgnd_1
XPHY_EDGE_ROW_15_Left_40 VGND VGND VPWR VPWR sky130_fd_sc_hd__decap_3
X_292_ net35 _010_ _021_ VGND VGND VPWR VPWR state\[7\] sky130_fd_sc_hd__dfrtp_1
XPHY_EDGE_ROW_0_Left_25 VGND VGND VPWR VPWR sky130_fd_sc_hd__decap_3
X_275_ net37 _036_ VGND VGND VPWR VPWR counter\[2\] sky130_fd_sc_hd__dfxtp_1
XFILLER_23_55 VGND VGND VPWR VPWR sky130_fd_sc_hd__fill_1
XFILLER_3_3 VGND VGND VPWR VPWR sky130_fd_sc_hd__fill_1
XFILLER_0_37 VGND VGND VPWR VPWR sky130_fd_sc_hd__decap_3
XFILLER_0_15 VGND VGND VPWR VPWR sky130_fd_sc_hd__decap_3
XTAP_TAPCELL_ROW_18_99 VGND VPWR sky130_fd_sc_hd__tapvpwrvgnd_1
X_189_ clk_counter\[0\] clk_counter\[1\] VGND VGND VPWR VPWR _104_ sky130_fd_sc_hd__or2_1
X_258_ net40 VGND VGND VPWR VPWR _015_ sky130_fd_sc_hd__inv_2
XFILLER_18_88 VPWR VGND VPWR VGND sky130_ef_sc_hd__decap_12
XFILLER_19_130 VPWR VGND VPWR VGND sky130_ef_sc_hd__decap_12
Xoutput22 net22 VGND VGND VPWR VPWR data_out[3] sky130_fd_sc_hd__buf_2
XTAP_TAPCELL_ROW_2_59 VGND VPWR sky130_fd_sc_hd__tapvpwrvgnd_1
X_291_ net35 _009_ _020_ VGND VGND VPWR VPWR state\[6\] sky130_fd_sc_hd__dfrtp_1
XFILLER_13_103 VGND VGND VPWR VPWR sky130_fd_sc_hd__fill_2
XFILLER_13_125 VGND VGND VPWR VPWR sky130_fd_sc_hd__decap_8
X_274_ net36 _035_ VGND VGND VPWR VPWR counter\[1\] sky130_fd_sc_hd__dfxtp_2
XFILLER_4_80 VGND VGND VPWR VPWR sky130_fd_sc_hd__decap_4
X_188_ clk_counter\[0\] clk_counter\[1\] VGND VGND VPWR VPWR _103_ sky130_fd_sc_hd__nand2_1
X_257_ net40 VGND VGND VPWR VPWR _014_ sky130_fd_sc_hd__inv_2
XFILLER_9_14 VGND VGND VPWR VPWR sky130_fd_sc_hd__decap_8
XFILLER_9_69 VPWR VGND VPWR VGND sky130_ef_sc_hd__decap_12
XFILLER_18_34 VGND VGND VPWR VPWR sky130_fd_sc_hd__decap_8
X_309_ net34 _060_ VGND VGND VPWR VPWR write_data_reg\[4\] sky130_fd_sc_hd__dfxtp_1
XFILLER_6_15 VPWR VGND VPWR VGND sky130_ef_sc_hd__decap_12
XFILLER_6_48 VGND VGND VPWR VPWR sky130_fd_sc_hd__decap_6
XFILLER_19_142 VGND VGND VPWR VPWR sky130_fd_sc_hd__decap_6
Xoutput23 net23 VGND VGND VPWR VPWR data_out[4] sky130_fd_sc_hd__buf_2
XFILLER_15_57 VGND VGND VPWR VPWR sky130_fd_sc_hd__decap_8
XFILLER_15_13 VGND VGND VPWR VPWR sky130_fd_sc_hd__fill_1
XFILLER_11_3 VPWR VGND VPWR VGND sky130_ef_sc_hd__decap_12
XTAP_TAPCELL_ROW_23_110 VGND VPWR sky130_fd_sc_hd__tapvpwrvgnd_1
X_290_ net35 _007_ _019_ VGND VGND VPWR VPWR state\[5\] sky130_fd_sc_hd__dfrtp_1
XTAP_TAPCELL_ROW_20_102 VGND VPWR sky130_fd_sc_hd__tapvpwrvgnd_1
XFILLER_8_141 VGND VGND VPWR VPWR sky130_fd_sc_hd__decap_6
X_273_ net37 _034_ VGND VGND VPWR VPWR counter\[0\] sky130_fd_sc_hd__dfxtp_2
XFILLER_23_57 VPWR VGND VPWR VGND sky130_ef_sc_hd__decap_12
X_187_ _025_ scl_enable VGND VGND VPWR VPWR i2c_scl sky130_fd_sc_hd__nand2_4
X_256_ net40 VGND VGND VPWR VPWR _013_ sky130_fd_sc_hd__inv_2
XFILLER_18_79 VGND VGND VPWR VPWR sky130_fd_sc_hd__fill_1
Xclkload0 clknet_1_1__leaf_clk VGND VGND VPWR VPWR clkload0/X sky130_fd_sc_hd__clkbuf_4
X_239_ address_reg\[1\] net1 net29 VGND VGND VPWR VPWR _049_ sky130_fd_sc_hd__mux2_1
X_308_ net37 _059_ VGND VGND VPWR VPWR write_data_reg\[3\] sky130_fd_sc_hd__dfxtp_1
XFILLER_6_27 VGND VGND VPWR VPWR sky130_fd_sc_hd__fill_1
XFILLER_13_7 VPWR VGND VPWR VGND sky130_ef_sc_hd__decap_12
Xoutput24 net24 VGND VGND VPWR VPWR data_out[5] sky130_fd_sc_hd__buf_2
XPHY_EDGE_ROW_19_Right_19 VGND VGND VPWR VPWR sky130_fd_sc_hd__decap_3
XTAP_TAPCELL_ROW_23_111 VGND VPWR sky130_fd_sc_hd__tapvpwrvgnd_1
XPHY_EDGE_ROW_19_Left_44 VGND VGND VPWR VPWR sky130_fd_sc_hd__decap_3
XTAP_TAPCELL_ROW_3_60 VGND VPWR sky130_fd_sc_hd__tapvpwrvgnd_1
XFILLER_8_131 VGND VGND VPWR VPWR sky130_fd_sc_hd__decap_8
XTAP_TAPCELL_ROW_20_103 VGND VPWR sky130_fd_sc_hd__tapvpwrvgnd_1
X_272_ clknet_1_1__leaf_clk _033_ _013_ VGND VGND VPWR VPWR i2c_clk sky130_fd_sc_hd__dfstp_1
XFILLER_10_108 VGND VGND VPWR VPWR sky130_fd_sc_hd__decap_6
XFILLER_12_37 VGND VGND VPWR VPWR sky130_fd_sc_hd__decap_6
XFILLER_23_69 VPWR VGND VPWR VGND sky130_ef_sc_hd__decap_12
XPHY_EDGE_ROW_4_Left_29 VGND VGND VPWR VPWR sky130_fd_sc_hd__decap_3
X_255_ net39 VGND VGND VPWR VPWR _024_ sky130_fd_sc_hd__inv_2
XFILLER_0_29 VGND VGND VPWR VPWR sky130_fd_sc_hd__decap_8
X_186_ net40 _067_ VGND VGND VPWR VPWR net27 sky130_fd_sc_hd__nor2_1
XTAP_TAPCELL_ROW_0_50 VGND VPWR sky130_fd_sc_hd__tapvpwrvgnd_1
XFILLER_1_3 VGND VGND VPWR VPWR sky130_fd_sc_hd__decap_4
X_307_ net37 _058_ VGND VGND VPWR VPWR write_data_reg\[2\] sky130_fd_sc_hd__dfxtp_1
XFILLER_1_61 VPWR VGND VPWR VGND sky130_ef_sc_hd__decap_12
X_169_ state\[1\] state\[3\] state\[5\] VGND VGND VPWR VPWR _094_ sky130_fd_sc_hd__nor3_1
X_238_ address_reg\[0\] net18 net28 VGND VGND VPWR VPWR _048_ sky130_fd_sc_hd__mux2_1
XPHY_EDGE_ROW_7_Left_32 VGND VGND VPWR VPWR sky130_fd_sc_hd__decap_3
XFILLER_15_37 VGND VGND VPWR VPWR sky130_fd_sc_hd__fill_1
Xoutput25 net25 VGND VGND VPWR VPWR data_out[6] sky130_fd_sc_hd__buf_2
XFILLER_22_139 VGND VGND VPWR VPWR sky130_fd_sc_hd__fill_1
XTAP_TAPCELL_ROW_3_61 VGND VPWR sky130_fd_sc_hd__tapvpwrvgnd_1
XTAP_TAPCELL_ROW_20_104 VGND VPWR sky130_fd_sc_hd__tapvpwrvgnd_1
XFILLER_12_27 VGND VGND VPWR VPWR sky130_fd_sc_hd__fill_1
XPHY_EDGE_ROW_20_Left_45 VGND VGND VPWR VPWR sky130_fd_sc_hd__decap_3
X_271_ net40 VGND VGND VPWR VPWR _032_ sky130_fd_sc_hd__inv_2
XFILLER_5_113 VGND VGND VPWR VPWR sky130_fd_sc_hd__decap_8
XFILLER_5_146 VGND VGND VPWR VPWR sky130_fd_sc_hd__fill_2
XFILLER_23_15 VPWR VGND VPWR VGND sky130_ef_sc_hd__decap_12
X_254_ net39 VGND VGND VPWR VPWR _026_ sky130_fd_sc_hd__inv_2
X_185_ _065_ net16 state\[4\] state\[6\] _102_ VGND VGND VPWR VPWR _008_ sky130_fd_sc_hd__a311o_1
XTAP_TAPCELL_ROW_0_51 VGND VPWR sky130_fd_sc_hd__tapvpwrvgnd_1
X_237_ _119_ _132_ _133_ _114_ net26 VGND VGND VPWR VPWR _045_ sky130_fd_sc_hd__a32o_1
X_306_ net37 _057_ VGND VGND VPWR VPWR write_data_reg\[1\] sky130_fd_sc_hd__dfxtp_1
X_168_ _066_ _083_ _092_ VGND VGND VPWR VPWR _093_ sky130_fd_sc_hd__a21o_1
XFILLER_20_27 VGND VGND VPWR VPWR sky130_fd_sc_hd__fill_1
XFILLER_1_73 VPWR VGND VPWR VGND sky130_ef_sc_hd__decap_12
Xoutput26 net26 VGND VGND VPWR VPWR data_out[7] sky130_fd_sc_hd__buf_2
XPHY_EDGE_ROW_1_Right_1 VGND VGND VPWR VPWR sky130_fd_sc_hd__decap_3
XTAP_TAPCELL_ROW_16_92 VGND VPWR sky130_fd_sc_hd__tapvpwrvgnd_1
X_270_ net40 VGND VGND VPWR VPWR _031_ sky130_fd_sc_hd__inv_2
XFILLER_23_27 VPWR VGND VPWR VGND sky130_ef_sc_hd__decap_12
XTAP_TAPCELL_ROW_0_52 VGND VPWR sky130_fd_sc_hd__tapvpwrvgnd_1
X_184_ net16 _067_ VGND VGND VPWR VPWR _102_ sky130_fd_sc_hd__nor2_1
X_253_ write_data_reg\[7\] net15 net28 VGND VGND VPWR VPWR _063_ sky130_fd_sc_hd__mux2_1
XFILLER_13_93 VGND VGND VPWR VPWR sky130_fd_sc_hd__decap_6
X_305_ net37 _056_ VGND VGND VPWR VPWR write_data_reg\[0\] sky130_fd_sc_hd__dfxtp_1
X_236_ i2c_sda _073_ _125_ VGND VGND VPWR VPWR _133_ sky130_fd_sc_hd__or3_1
X_167_ _089_ _090_ _091_ _084_ VGND VGND VPWR VPWR _092_ sky130_fd_sc_hd__a31o_1
XFILLER_1_85 VPWR VGND VPWR VGND sky130_ef_sc_hd__decap_12
X_219_ counter\[3\] net33 _075_ VGND VGND VPWR VPWR _121_ sky130_fd_sc_hd__or3_1
Xoutput27 net27 VGND VGND VPWR VPWR ready sky130_fd_sc_hd__buf_2
XFILLER_21_71 VGND VGND VPWR VPWR sky130_fd_sc_hd__decap_4
Xclkbuf_0_clk clk VGND VGND VPWR VPWR clknet_0_clk sky130_fd_sc_hd__clkbuf_16
XPHY_EDGE_ROW_24_Right_24 VGND VGND VPWR VPWR sky130_fd_sc_hd__decap_3
XFILLER_21_141 VGND VGND VPWR VPWR sky130_fd_sc_hd__decap_4
XPHY_EDGE_ROW_15_Right_15 VGND VGND VPWR VPWR sky130_fd_sc_hd__decap_3
XFILLER_7_73 VGND VGND VPWR VPWR sky130_fd_sc_hd__decap_3
XTAP_TAPCELL_ROW_16_93 VGND VPWR sky130_fd_sc_hd__tapvpwrvgnd_1
XFILLER_12_141 VGND VGND VPWR VPWR sky130_fd_sc_hd__decap_4
XFILLER_5_104 VGND VGND VPWR VPWR sky130_fd_sc_hd__decap_8
XFILLER_4_85 VGND VGND VPWR VPWR sky130_fd_sc_hd__decap_8
XFILLER_4_96 VPWR VGND VPWR VGND sky130_ef_sc_hd__decap_12
XFILLER_23_39 VPWR VGND VPWR VGND sky130_ef_sc_hd__decap_12
XTAP_TAPCELL_ROW_0_53 VGND VPWR sky130_fd_sc_hd__tapvpwrvgnd_1
X_252_ write_data_reg\[6\] net14 net28 VGND VGND VPWR VPWR _062_ sky130_fd_sc_hd__mux2_1
Xfanout40 net17 VGND VGND VPWR VPWR net40 sky130_fd_sc_hd__clkbuf_4
X_183_ _065_ state\[2\] address_reg\[0\] _101_ state\[9\] VGND VGND VPWR VPWR _012_
+ sky130_fd_sc_hd__a32o_1
X_235_ _073_ _125_ net26 VGND VGND VPWR VPWR _132_ sky130_fd_sc_hd__o21bai_1
X_304_ net34 _055_ VGND VGND VPWR VPWR address_reg\[7\] sky130_fd_sc_hd__dfxtp_1
XFILLER_20_29 VGND VGND VPWR VPWR sky130_fd_sc_hd__fill_1
XFILLER_1_97 VGND VGND VPWR VPWR sky130_fd_sc_hd__decap_6
XFILLER_1_31 VGND VGND VPWR VPWR sky130_fd_sc_hd__decap_4
X_166_ _069_ _085_ _087_ _077_ VGND VGND VPWR VPWR _091_ sky130_fd_sc_hd__o22a_1
X_149_ counter\[0\] counter\[1\] VGND VGND VPWR VPWR _074_ sky130_fd_sc_hd__and2b_1
X_218_ i2c_sda _112_ _119_ VGND VGND VPWR VPWR _120_ sky130_fd_sc_hd__and3_1
XFILLER_16_139 VGND VGND VPWR VPWR sky130_fd_sc_hd__fill_1
XTAP_TAPCELL_ROW_16_94 VGND VPWR sky130_fd_sc_hd__tapvpwrvgnd_1
XFILLER_16_83 VGND VGND VPWR VPWR sky130_fd_sc_hd__fill_1
XPHY_EDGE_ROW_24_Left_49 VGND VGND VPWR VPWR sky130_fd_sc_hd__decap_3
XTAP_TAPCELL_ROW_0_54 VGND VPWR sky130_fd_sc_hd__tapvpwrvgnd_1
XFILLER_1_141 VGND VGND VPWR VPWR sky130_fd_sc_hd__decap_6
X_251_ write_data_reg\[5\] net13 net28 VGND VGND VPWR VPWR _061_ sky130_fd_sc_hd__mux2_1
X_182_ state\[8\] _101_ state\[3\] VGND VGND VPWR VPWR _011_ sky130_fd_sc_hd__a21o_1
XFILLER_13_40 VPWR VGND VPWR VGND sky130_ef_sc_hd__decap_12
XFILLER_1_7 VGND VGND VPWR VPWR sky130_fd_sc_hd__fill_1
XFILLER_24_83 VGND VGND VPWR VPWR sky130_fd_sc_hd__fill_1
X_234_ net33 _074_ _120_ _131_ VGND VGND VPWR VPWR _044_ sky130_fd_sc_hd__a31o_1
X_303_ net34 _054_ VGND VGND VPWR VPWR address_reg\[6\] sky130_fd_sc_hd__dfxtp_1
X_165_ _073_ _086_ net33 VGND VGND VPWR VPWR _090_ sky130_fd_sc_hd__o21a_1
X_148_ counter\[0\] counter\[1\] VGND VGND VPWR VPWR _073_ sky130_fd_sc_hd__nand2_2
X_217_ i2c_sda _117_ _119_ _118_ net20 VGND VGND VPWR VPWR _039_ sky130_fd_sc_hd__a32o_1
XFILLER_10_96 VPWR VGND VPWR VGND sky130_ef_sc_hd__decap_12
XPHY_EDGE_ROW_11_Left_36 VGND VGND VPWR VPWR sky130_fd_sc_hd__decap_3
XFILLER_7_20 VGND VGND VPWR VPWR sky130_fd_sc_hd__decap_8
XFILLER_7_42 VGND VGND VPWR VPWR sky130_fd_sc_hd__fill_1
XPHY_EDGE_ROW_5_Right_5 VGND VGND VPWR VPWR sky130_fd_sc_hd__decap_3
XFILLER_8_147 VGND VGND VPWR VPWR sky130_fd_sc_hd__fill_1
XFILLER_12_110 VGND VGND VPWR VPWR sky130_fd_sc_hd__fill_1
X_250_ write_data_reg\[4\] net12 net28 VGND VGND VPWR VPWR _060_ sky130_fd_sc_hd__mux2_1
X_181_ _065_ state\[2\] _068_ _101_ net32 VGND VGND VPWR VPWR _010_ sky130_fd_sc_hd__a32o_1
XFILLER_13_52 VGND VGND VPWR VPWR sky130_fd_sc_hd__decap_4
XTAP_TAPCELL_ROW_13_85 VGND VPWR sky130_fd_sc_hd__tapvpwrvgnd_1
XTAP_TAPCELL_ROW_9_75 VGND VPWR sky130_fd_sc_hd__tapvpwrvgnd_1
X_233_ net25 _114_ _119_ _130_ VGND VGND VPWR VPWR _131_ sky130_fd_sc_hd__a22o_1
X_302_ net34 _053_ VGND VGND VPWR VPWR address_reg\[5\] sky130_fd_sc_hd__dfxtp_1
X_164_ _075_ _088_ VGND VGND VPWR VPWR _089_ sky130_fd_sc_hd__or2_1
XFILLER_19_51 VGND VGND VPWR VPWR sky130_fd_sc_hd__decap_4
XFILLER_10_64 VPWR VGND VPWR VGND sky130_ef_sc_hd__decap_12
X_147_ counter\[0\] counter\[1\] VGND VGND VPWR VPWR _072_ sky130_fd_sc_hd__and2_1
XFILLER_18_3 VGND VGND VPWR VPWR sky130_fd_sc_hd__decap_4
X_216_ _064_ _114_ VGND VGND VPWR VPWR _119_ sky130_fd_sc_hd__nor2_2
XFILLER_24_141 VGND VGND VPWR VPWR sky130_fd_sc_hd__decap_6
XFILLER_24_130 VGND VGND VPWR VPWR sky130_fd_sc_hd__fill_1
XFILLER_16_108 VPWR VGND VPWR VGND sky130_ef_sc_hd__decap_12
Xoutput19 net19 VGND VGND VPWR VPWR data_out[0] sky130_fd_sc_hd__buf_2
XFILLER_15_141 VGND VGND VPWR VPWR sky130_fd_sc_hd__decap_4
XFILLER_15_130 VGND VGND VPWR VPWR sky130_fd_sc_hd__fill_2
XFILLER_7_54 VGND VGND VPWR VPWR sky130_fd_sc_hd__fill_2
XFILLER_7_65 VGND VGND VPWR VPWR sky130_fd_sc_hd__decap_8
XFILLER_21_122 VGND VGND VPWR VPWR sky130_fd_sc_hd__decap_3
XPHY_EDGE_ROW_20_Right_20 VGND VGND VPWR VPWR sky130_fd_sc_hd__decap_3
XFILLER_16_96 VPWR VGND VPWR VGND sky130_ef_sc_hd__decap_12
XFILLER_16_85 VGND VGND VPWR VPWR sky130_fd_sc_hd__decap_8
XFILLER_16_41 VPWR VGND VPWR VGND sky130_ef_sc_hd__decap_12
XPHY_EDGE_ROW_11_Right_11 VGND VGND VPWR VPWR sky130_fd_sc_hd__decap_3
Xfanout32 state\[7\] VGND VGND VPWR VPWR net32 sky130_fd_sc_hd__buf_2
X_180_ counter\[3\] net33 _069_ VGND VGND VPWR VPWR _101_ sky130_fd_sc_hd__or3_2
XTAP_TAPCELL_ROW_13_86 VGND VPWR sky130_fd_sc_hd__tapvpwrvgnd_1
XTAP_TAPCELL_ROW_9_76 VGND VPWR sky130_fd_sc_hd__tapvpwrvgnd_1
XFILLER_24_85 VPWR VGND VPWR VGND sky130_ef_sc_hd__decap_12
XFILLER_24_63 VPWR VGND VPWR VGND sky130_ef_sc_hd__decap_12
X_232_ _075_ _125_ net25 VGND VGND VPWR VPWR _130_ sky130_fd_sc_hd__o21a_1
X_301_ net34 _052_ VGND VGND VPWR VPWR address_reg\[4\] sky130_fd_sc_hd__dfxtp_1
X_163_ address_reg\[6\] write_data_reg\[6\] state\[7\] VGND VGND VPWR VPWR _088_ sky130_fd_sc_hd__mux2_1
XFILLER_19_96 VGND VGND VPWR VPWR sky130_fd_sc_hd__fill_1
XFILLER_10_43 VGND VGND VPWR VPWR sky130_fd_sc_hd__fill_1
XFILLER_10_76 VGND VGND VPWR VPWR sky130_fd_sc_hd__decap_8
X_215_ _064_ _117_ _114_ VGND VGND VPWR VPWR _118_ sky130_fd_sc_hd__o21bai_1
X_146_ address_reg\[0\] _069_ net32 VGND VGND VPWR VPWR _071_ sky130_fd_sc_hd__o21ba_1
XFILLER_16_53 VGND VGND VPWR VPWR sky130_fd_sc_hd__decap_4
XFILLER_4_67 VGND VGND VPWR VPWR sky130_fd_sc_hd__decap_6
XFILLER_4_141 VGND VGND VPWR VPWR sky130_fd_sc_hd__decap_4
Xfanout33 counter\[2\] VGND VGND VPWR VPWR net33 sky130_fd_sc_hd__buf_2
XFILLER_1_122 VGND VGND VPWR VPWR sky130_fd_sc_hd__decap_3
XFILLER_8_3 VGND VGND VPWR VPWR sky130_fd_sc_hd__decap_4
XFILLER_13_32 VGND VGND VPWR VPWR sky130_fd_sc_hd__decap_4
XFILLER_13_76 VGND VGND VPWR VPWR sky130_fd_sc_hd__fill_2
XFILLER_24_97 VGND VGND VPWR VPWR sky130_fd_sc_hd__decap_8
XFILLER_24_75 VGND VGND VPWR VPWR sky130_fd_sc_hd__decap_8
XFILLER_24_42 VGND VGND VPWR VPWR sky130_fd_sc_hd__decap_3
X_300_ net37 _051_ VGND VGND VPWR VPWR address_reg\[3\] sky130_fd_sc_hd__dfxtp_1
X_231_ net33 _078_ _120_ _129_ VGND VGND VPWR VPWR _043_ sky130_fd_sc_hd__a31o_1
X_162_ address_reg\[5\] write_data_reg\[5\] state\[7\] VGND VGND VPWR VPWR _087_ sky130_fd_sc_hd__mux2_1
XFILLER_1_35 VGND VGND VPWR VPWR sky130_fd_sc_hd__fill_1
Xinput1 address[0] VGND VGND VPWR VPWR net1 sky130_fd_sc_hd__clkbuf_1
XFILLER_19_118 VPWR VGND VPWR VGND sky130_ef_sc_hd__decap_12
XTAP_TAPCELL_ROW_10_77 VGND VPWR sky130_fd_sc_hd__tapvpwrvgnd_1
X_145_ _069_ VGND VGND VPWR VPWR _070_ sky130_fd_sc_hd__inv_2
X_214_ counter\[3\] net33 _077_ VGND VGND VPWR VPWR _117_ sky130_fd_sc_hd__nor3_1
XTAP_TAPCELL_ROW_6_67 VGND VPWR sky130_fd_sc_hd__tapvpwrvgnd_1
XFILLER_21_54 VGND VGND VPWR VPWR sky130_fd_sc_hd__fill_2
XFILLER_15_110 VGND VGND VPWR VPWR sky130_fd_sc_hd__fill_2
Xmax_cap30 net31 VGND VGND VPWR VPWR net30 sky130_fd_sc_hd__clkbuf_1
XFILLER_23_3 VPWR VGND VPWR VGND sky130_ef_sc_hd__decap_12
XFILLER_8_139 VGND VGND VPWR VPWR sky130_fd_sc_hd__fill_1
XPHY_EDGE_ROW_9_Right_9 VGND VGND VPWR VPWR sky130_fd_sc_hd__decap_3
XFILLER_4_120 VGND VGND VPWR VPWR sky130_fd_sc_hd__decap_6
XPHY_EDGE_ROW_18_Left_43 VGND VGND VPWR VPWR sky130_fd_sc_hd__decap_3
Xfanout34 net38 VGND VGND VPWR VPWR net34 sky130_fd_sc_hd__buf_2
XFILLER_13_99 VGND VGND VPWR VPWR sky130_fd_sc_hd__fill_1
X_230_ net24 _114_ _119_ _128_ VGND VGND VPWR VPWR _129_ sky130_fd_sc_hd__a22o_1
XPHY_EDGE_ROW_3_Left_28 VGND VGND VPWR VPWR sky130_fd_sc_hd__decap_3
X_161_ address_reg\[7\] write_data_reg\[7\] net32 VGND VGND VPWR VPWR _086_ sky130_fd_sc_hd__mux2_1
Xinput2 address[1] VGND VGND VPWR VPWR net2 sky130_fd_sc_hd__clkbuf_1
XTAP_TAPCELL_ROW_10_78 VGND VPWR sky130_fd_sc_hd__tapvpwrvgnd_1
X_144_ counter\[0\] counter\[1\] VGND VGND VPWR VPWR _069_ sky130_fd_sc_hd__or2_2
XFILLER_19_43 VGND VGND VPWR VPWR sky130_fd_sc_hd__fill_2
XTAP_TAPCELL_ROW_6_68 VGND VPWR sky130_fd_sc_hd__tapvpwrvgnd_1
X_213_ _065_ _115_ _116_ VGND VGND VPWR VPWR _038_ sky130_fd_sc_hd__a21oi_1
XFILLER_18_141 VGND VGND VPWR VPWR sky130_fd_sc_hd__decap_6
XFILLER_18_130 VGND VGND VPWR VPWR sky130_fd_sc_hd__fill_1
XFILLER_24_111 VGND VGND VPWR VPWR sky130_fd_sc_hd__fill_1
Xmax_cap31 _100_ VGND VGND VPWR VPWR net31 sky130_fd_sc_hd__clkbuf_1
XPHY_EDGE_ROW_6_Left_31 VGND VGND VPWR VPWR sky130_fd_sc_hd__decap_3
XFILLER_16_3 VPWR VGND VPWR VGND sky130_ef_sc_hd__decap_12
XFILLER_15_122 VGND VGND VPWR VPWR sky130_fd_sc_hd__decap_8
XFILLER_7_46 VGND VGND VPWR VPWR sky130_fd_sc_hd__decap_8
XFILLER_8_107 VPWR VGND VPWR VGND sky130_ef_sc_hd__decap_12
XFILLER_12_136 VGND VGND VPWR VPWR sky130_fd_sc_hd__decap_4
Xfanout35 net38 VGND VGND VPWR VPWR net35 sky130_fd_sc_hd__buf_2
X_160_ address_reg\[4\] write_data_reg\[4\] net32 VGND VGND VPWR VPWR _085_ sky130_fd_sc_hd__mux2_1
Xinput3 address[2] VGND VGND VPWR VPWR net3 sky130_fd_sc_hd__clkbuf_1
XPHY_EDGE_ROW_18_Right_18 VGND VGND VPWR VPWR sky130_fd_sc_hd__decap_3
X_289_ net35 _006_ _018_ VGND VGND VPWR VPWR state\[4\] sky130_fd_sc_hd__dfrtp_1
XTAP_TAPCELL_ROW_10_79 VGND VPWR sky130_fd_sc_hd__tapvpwrvgnd_1
XFILLER_19_109 VGND VGND VPWR VPWR sky130_fd_sc_hd__decap_3
XFILLER_19_55 VGND VGND VPWR VPWR sky130_fd_sc_hd__fill_1
XTAP_TAPCELL_ROW_6_69 VGND VPWR sky130_fd_sc_hd__tapvpwrvgnd_1
XFILLER_10_35 VGND VGND VPWR VPWR sky130_fd_sc_hd__decap_8
X_212_ net19 _115_ net29 _064_ VGND VGND VPWR VPWR _116_ sky130_fd_sc_hd__a2bb2o_1
X_143_ address_reg\[0\] VGND VGND VPWR VPWR _068_ sky130_fd_sc_hd__inv_2
XPHY_EDGE_ROW_0_Right_0 VGND VGND VPWR VPWR sky130_fd_sc_hd__decap_3
XFILLER_8_119 VPWR VGND VPWR VGND sky130_ef_sc_hd__decap_12
XFILLER_12_104 VGND VGND VPWR VPWR sky130_fd_sc_hd__decap_6
XFILLER_7_141 VGND VGND VPWR VPWR sky130_fd_sc_hd__decap_4
Xfanout36 net38 VGND VGND VPWR VPWR net36 sky130_fd_sc_hd__clkbuf_2
XFILLER_1_147 VGND VGND VPWR VPWR sky130_fd_sc_hd__fill_1
XFILLER_13_68 VGND VGND VPWR VPWR sky130_fd_sc_hd__decap_8
XFILLER_6_3 VPWR VGND VPWR VGND sky130_ef_sc_hd__decap_12
X_288_ net35 state\[5\] _017_ VGND VGND VPWR VPWR state\[3\] sky130_fd_sc_hd__dfrtp_1
Xinput4 address[3] VGND VGND VPWR VPWR net4 sky130_fd_sc_hd__clkbuf_1
X_142_ net41 VGND VGND VPWR VPWR _000_ sky130_fd_sc_hd__inv_2
X_211_ _101_ _114_ VGND VGND VPWR VPWR _115_ sky130_fd_sc_hd__nor2_1
XFILLER_24_113 VGND VGND VPWR VPWR sky130_fd_sc_hd__fill_2
XFILLER_15_113 VGND VGND VPWR VPWR sky130_fd_sc_hd__fill_2
XFILLER_15_102 VGND VGND VPWR VPWR sky130_fd_sc_hd__decap_8
XFILLER_7_15 VGND VGND VPWR VPWR sky130_fd_sc_hd__fill_2
Xfanout37 net38 VGND VGND VPWR VPWR net37 sky130_fd_sc_hd__clkbuf_2
XFILLER_13_36 VGND VGND VPWR VPWR sky130_fd_sc_hd__fill_1
XFILLER_5_70 VGND VGND VPWR VPWR sky130_fd_sc_hd__decap_8
XFILLER_5_92 VPWR VGND VPWR VGND sky130_ef_sc_hd__decap_12