*SPEF "ieee 1481-1999"
*DESIGN "i2c_master_controller"
*DATE "21:35:10 Tuesday February 24, 2026"
*VENDOR "The OpenROAD Project"
*PROGRAM "OpenROAD"
*VERSION "edf00dff99f6c40d67a30c0e22a8191c5d2ed9d6"
*DESIGN_FLOW "NAME_SCOPE LOCAL" "PIN_CAP NONE"
*DIVIDER /
*DELIMITER :
*BUS_DELIMITER []
*T_UNIT 1 NS
*C_UNIT 1 PF
*R_UNIT 1 OHM
*L_UNIT 1 HENRY

*NAME_MAP
*3 address[0]
*4 address[1]
*5 address[2]
*6 address[3]
*7 address[4]
*8 address[5]
*9 address[6]
*10 clk
*11 data_in[0]
*12 data_in[1]
*13 data_in[2]
*14 data_in[3]
*15 data_in[4]
*16 data_in[5]
*17 data_in[6]
*18 data_in[7]
*19 data_out[0]
*20 data_out[1]
*21 data_out[2]
*22 data_out[3]
*23 data_out[4]
*24 data_out[5]
*25 data_out[6]
*26 data_out[7]
*27 enable
*28 i2c_scl
*29 i2c_sda
*30 ready
*31 rst
*32 rw
*33 _000_
*34 _001_
*35 _002_
*36 _003_
*37 _004_
*38 _005_
*39 _006_
*40 _007_
*41 _008_
*42 _009_
*43 _010_
*44 _011_
*45 _012_
*46 _013_
*47 _014_
*48 _015_
*49 _016_
*50 _017_
*51 _018_
*52 _019_
*53 _020_
*54 _021_
*55 _022_
*56 _023_
*57 _024_
*58 _025_
*59 _026_
*60 _027_
*61 _028_
*62 _029_
*63 _030_
*64 _031_
*65 _032_
*66 _033_
*67 _034_
*68 _035_
*69 _036_
*70 _037_
*71 _038_
*72 _039_
*73 _040_
*74 _041_
*75 _042_
*76 _043_
*77 _044_
*78 _045_
*79 _046_
*80 _047_
*81 _048_
*82 _049_
*83 _050_
*84 _051_
*85 _052_
*86 _053_
*87 _054_
*88 _055_
*89 _056_
*90 _057_
*91 _058_
*92 _059_
*93 _060_
*94 _061_
*95 _062_
*96 _063_
*97 _064_
*98 _065_
*99 _066_
*100 _067_
*101 _068_
*102 _069_
*103 _070_
*104 _071_
*105 _072_
*106 _073_
*107 _074_
*108 _075_
*109 _076_
*110 _077_
*111 _078_
*112 _079_
*113 _080_
*114 _081_
*115 _082_
*116 _083_
*117 _084_
*118 _085_
*119 _086_
*120 _087_
*121 _088_
*122 _089_
*123 _090_
*124 _091_
*125 _092_
*126 _093_
*127 _094_
*128 _095_
*129 _096_
*130 _097_
*131 _098_
*132 _099_
*133 _100_
*134 _101_
*135 _102_
*136 _103_
*137 _104_
*138 _105_
*139 _106_
*140 _107_
*141 _108_
*142 _109_
*143 _110_
*144 _111_
*145 _112_
*146 _113_
*147 _114_
*148 _115_
*149 _116_
*150 _117_
*151 _118_
*152 _119_
*153 _120_
*154 _121_
*155 _122_
*156 _123_
*157 _124_
*158 _125_
*159 _126_
*160 _127_
*161 _128_
*162 _129_
*163 _130_
*164 _131_
*165 _132_
*166 _133_
*167 _134_
*168 address_reg\[0\]
*169 address_reg\[1\]
*170 address_reg\[2\]
*171 address_reg\[3\]
*172 address_reg\[4\]
*173 address_reg\[5\]
*174 address_reg\[6\]
*175 address_reg\[7\]
*176 clk_counter\[0\]
*177 clk_counter\[1\]
*178 clk_counter\[2\]
*179 clknet_0_clk
*180 clknet_1_0__leaf_clk
*181 clknet_1_1__leaf_clk
*182 counter\[0\]
*183 counter\[1\]
*184 counter\[2\]
*185 counter\[3\]
*186 i2c_clk
*187 net1
*188 net10
*189 net11
*190 net12
*191 net13
*192 net14
*193 net15
*194 net16
*195 net17
*196 net18
*197 net19
*198 net2
*199 net20
*200 net21
*201 net22
*202 net23
*203 net24
*204 net25
*205 net26
*206 net27
*207 net28
*208 net29
*209 net3
*210 net30
*211 net31
*212 net32
*213 net33
*214 net34
*215 net35
*216 net36
*217 net37
*218 net38
*219 net39
*220 net4
*221 net40
*222 net41
*223 net42
*224 net43
*225 net44
*226 net5
*227 net6
*228 net7
*229 net8
*230 net9
*231 scl_enable
*232 sda_drive_en
*233 sda_out
*234 state\[0\]
*235 state\[1\]
*236 state\[2\]
*237 state\[3\]
*238 state\[4\]
*239 state\[5\]
*240 state\[6\]
*241 state\[7\]
*242 state\[8\]
*243 state\[9\]
*244 write_data_reg\[0\]
*245 write_data_reg\[1\]
*246 write_data_reg\[2\]
*247 write_data_reg\[3\]
*248 write_data_reg\[4\]
*249 write_data_reg\[5\]
*250 write_data_reg\[6\]
*251 write_data_reg\[7\]
*252 FILLER_0_105
*253 FILLER_0_111
*254 FILLER_0_113
*255 FILLER_0_118
*256 FILLER_0_130
*257 FILLER_0_141
*258 FILLER_0_147
*259 FILLER_0_15
*260 FILLER_0_24
*261 FILLER_0_29
*262 FILLER_0_3
*263 FILLER_0_37
*264 FILLER_0_43
*265 FILLER_0_54
*266 FILLER_0_57
*267 FILLER_0_69
*268 FILLER_0_81
*269 FILLER_0_85
*270 FILLER_0_97
*271 FILLER_10_108
*272 FILLER_10_114
*273 FILLER_10_141
*274 FILLER_10_19
*275 FILLER_10_26
*276 FILLER_10_29
*277 FILLER_10_35
*278 FILLER_10_43
*279 FILLER_10_64
*280 FILLER_10_7
*281 FILLER_10_76
*282 FILLER_10_96
*283 FILLER_11_109
*284 FILLER_11_113
*285 FILLER_11_125
*286 FILLER_11_144
*287 FILLER_11_15
*288 FILLER_11_23
*289 FILLER_11_3
*290 FILLER_11_30
*291 FILLER_11_42
*292 FILLER_11_50
*293 FILLER_11_69
*294 FILLER_11_97
*295 FILLER_12_104
*296 FILLER_12_110
*297 FILLER_12_136
*298 FILLER_12_141
*299 FILLER_12_27
*300 FILLER_12_37
*301 FILLER_12_6
*302 FILLER_12_92
*303 FILLER_13_103
*304 FILLER_13_111
*305 FILLER_13_125
*306 FILLER_13_142
*307 FILLER_13_19
*308 FILLER_13_27
*309 FILLER_13_32
*310 FILLER_13_36
*311 FILLER_13_40
*312 FILLER_13_52
*313 FILLER_13_68
*314 FILLER_13_7
*315 FILLER_13_76
*316 FILLER_13_93
*317 FILLER_13_99
*318 FILLER_14_141
*319 FILLER_14_147
*320 FILLER_14_27
*321 FILLER_14_29
*322 FILLER_14_3
*323 FILLER_14_41
*324 FILLER_14_51
*325 FILLER_14_63
*326 FILLER_14_75
*327 FILLER_14_83
*328 FILLER_14_85
*329 FILLER_14_97
*330 FILLER_15_102
*331 FILLER_15_110
*332 FILLER_15_113
*333 FILLER_15_122
*334 FILLER_15_13
*335 FILLER_15_130
*336 FILLER_15_141
*337 FILLER_15_22
*338 FILLER_15_33
*339 FILLER_15_37
*340 FILLER_15_42
*341 FILLER_15_54
*342 FILLER_15_57
*343 FILLER_15_65
*344 FILLER_15_7
*345 FILLER_15_76
*346 FILLER_15_88
*347 FILLER_16_108
*348 FILLER_16_120
*349 FILLER_16_139
*350 FILLER_16_141
*351 FILLER_16_15
*352 FILLER_16_27
*353 FILLER_16_29
*354 FILLER_16_3
*355 FILLER_16_41
*356 FILLER_16_53
*357 FILLER_16_83
*358 FILLER_16_85
*359 FILLER_16_96
*360 FILLER_17_109
*361 FILLER_17_113
*362 FILLER_17_140
*363 FILLER_17_144
*364 FILLER_17_15
*365 FILLER_17_25
*366 FILLER_17_3
*367 FILLER_17_37
*368 FILLER_17_45
*369 FILLER_17_53
*370 FILLER_17_62
*371 FILLER_17_66
*372 FILLER_17_73
*373 FILLER_17_83
*374 FILLER_17_91
*375 FILLER_17_97
*376 FILLER_18_100
*377 FILLER_18_106
*378 FILLER_18_118
*379 FILLER_18_130
*380 FILLER_18_141
*381 FILLER_18_147
*382 FILLER_18_3
*383 FILLER_18_34
*384 FILLER_18_53
*385 FILLER_18_63
*386 FILLER_18_75
*387 FILLER_18_79
*388 FILLER_18_83
*389 FILLER_18_88
*390 FILLER_19_109
*391 FILLER_19_118
*392 FILLER_19_130
*393 FILLER_19_142
*394 FILLER_19_28
*395 FILLER_19_43
*396 FILLER_19_51
*397 FILLER_19_55
*398 FILLER_19_57
*399 FILLER_19_7
*400 FILLER_19_96
*401 FILLER_1_122
*402 FILLER_1_141
*403 FILLER_1_147
*404 FILLER_1_3
*405 FILLER_1_31
*406 FILLER_1_35
*407 FILLER_1_61
*408 FILLER_1_7
*409 FILLER_1_73
*410 FILLER_1_85
*411 FILLER_1_97
*412 FILLER_20_107
*413 FILLER_20_116
*414 FILLER_20_126
*415 FILLER_20_130
*416 FILLER_20_141
*417 FILLER_20_147
*418 FILLER_20_27
*419 FILLER_20_29
*420 FILLER_20_3
*421 FILLER_20_40
*422 FILLER_20_63
*423 FILLER_20_71
*424 FILLER_20_82
*425 FILLER_20_98
*426 FILLER_21_109
*427 FILLER_21_122
*428 FILLER_21_141
*429 FILLER_21_19
*430 FILLER_21_36
*431 FILLER_21_54
*432 FILLER_21_7
*433 FILLER_21_71
*434 FILLER_22_133
*435 FILLER_22_139
*436 FILLER_22_141
*437 FILLER_22_15
*438 FILLER_22_27
*439 FILLER_22_29
*440 FILLER_22_3
*441 FILLER_22_47
*442 FILLER_22_64
*443 FILLER_22_70
*444 FILLER_22_82
*445 FILLER_22_85
*446 FILLER_22_97
*447 FILLER_23_105
*448 FILLER_23_111
*449 FILLER_23_122
*450 FILLER_23_141
*451 FILLER_23_147
*452 FILLER_23_15
*453 FILLER_23_27
*454 FILLER_23_3
*455 FILLER_23_39
*456 FILLER_23_51
*457 FILLER_23_55
*458 FILLER_23_57
*459 FILLER_23_69
*460 FILLER_23_81
*461 FILLER_23_93
*462 FILLER_24_105
*463 FILLER_24_111
*464 FILLER_24_113
*465 FILLER_24_118
*466 FILLER_24_130
*467 FILLER_24_141
*468 FILLER_24_147
*469 FILLER_24_15
*470 FILLER_24_27
*471 FILLER_24_29
*472 FILLER_24_3
*473 FILLER_24_37
*474 FILLER_24_42
*475 FILLER_24_49
*476 FILLER_24_57
*477 FILLER_24_63
*478 FILLER_24_75
*479 FILLER_24_83
*480 FILLER_24_85
*481 FILLER_24_97
*482 FILLER_2_130
*483 FILLER_2_141
*484 FILLER_2_3
*485 FILLER_2_50
*486 FILLER_2_7
*487 FILLER_2_71
*488 FILLER_2_85
*489 FILLER_2_89
*490 FILLER_2_97
*491 FILLER_3_11
*492 FILLER_3_111
*493 FILLER_3_122
*494 FILLER_3_141
*495 FILLER_3_147
*496 FILLER_3_3
*497 FILLER_3_57
*498 FILLER_3_99
*499 FILLER_4_108
*500 FILLER_4_120
*501 FILLER_4_126
*502 FILLER_4_136
*503 FILLER_4_141
*504 FILLER_4_3
*505 FILLER_4_67
*506 FILLER_4_7
*507 FILLER_4_80
*508 FILLER_4_85
*509 FILLER_4_96
*510 FILLER_5_104
*511 FILLER_5_113
*512 FILLER_5_146
*513 FILLER_5_54
*514 FILLER_5_61
*515 FILLER_5_70
*516 FILLER_5_78
*517 FILLER_5_88
*518 FILLER_5_92
*519 FILLER_6_106
*520 FILLER_6_118
*521 FILLER_6_136
*522 FILLER_6_141
*523 FILLER_6_15
*524 FILLER_6_27
*525 FILLER_6_3
*526 FILLER_6_32
*527 FILLER_6_48
*528 FILLER_6_54
*529 FILLER_6_79
*530 FILLER_7_110
*531 FILLER_7_113
*532 FILLER_7_121
*533 FILLER_7_141
*534 FILLER_7_15
*535 FILLER_7_20
*536 FILLER_7_3
*537 FILLER_7_38
*538 FILLER_7_42
*539 FILLER_7_46
*540 FILLER_7_54
*541 FILLER_7_65
*542 FILLER_7_73
*543 FILLER_8_107
*544 FILLER_8_119
*545 FILLER_8_131
*546 FILLER_8_139
*547 FILLER_8_141
*548 FILLER_8_147
*549 FILLER_8_3
*550 FILLER_8_40
*551 FILLER_8_59
*552 FILLER_8_85
*553 FILLER_8_89
*554 FILLER_8_95
*555 FILLER_9_10
*556 FILLER_9_103
*557 FILLER_9_111
*558 FILLER_9_113
*559 FILLER_9_121
*560 FILLER_9_14
*561 FILLER_9_140
*562 FILLER_9_42
*563 FILLER_9_54
*564 FILLER_9_6
*565 FILLER_9_63
*566 FILLER_9_69
*567 FILLER_9_81
*568 PHY_EDGE_ROW_0_Left_25
*569 PHY_EDGE_ROW_0_Right_0
*570 PHY_EDGE_ROW_10_Left_35
*571 PHY_EDGE_ROW_10_Right_10
*572 PHY_EDGE_ROW_11_Left_36
*573 PHY_EDGE_ROW_11_Right_11
*574 PHY_EDGE_ROW_12_Left_37
*575 PHY_EDGE_ROW_12_Right_12
*576 PHY_EDGE_ROW_13_Left_38
*577 PHY_EDGE_ROW_13_Right_13
*578 PHY_EDGE_ROW_14_Left_39
*579 PHY_EDGE_ROW_14_Right_14
*580 PHY_EDGE_ROW_15_Left_40
*581 PHY_EDGE_ROW_15_Right_15
*582 PHY_EDGE_ROW_16_Left_41
*583 PHY_EDGE_ROW_16_Right_16
*584 PHY_EDGE_ROW_17_Left_42
*585 PHY_EDGE_ROW_17_Right_17
*586 PHY_EDGE_ROW_18_Left_43
*587 PHY_EDGE_ROW_18_Right_18
*588 PHY_EDGE_ROW_19_Left_44
*589 PHY_EDGE_ROW_19_Right_19
*590 PHY_EDGE_ROW_1_Left_26
*591 PHY_EDGE_ROW_1_Right_1
*592 PHY_EDGE_ROW_20_Left_45
*593 PHY_EDGE_ROW_20_Right_20
*594 PHY_EDGE_ROW_21_Left_46
*595 PHY_EDGE_ROW_21_Right_21
*596 PHY_EDGE_ROW_22_Left_47
*597 PHY_EDGE_ROW_22_Right_22
*598 PHY_EDGE_ROW_23_Left_48
*599 PHY_EDGE_ROW_23_Right_23
*600 PHY_EDGE_ROW_24_Left_49
*601 PHY_EDGE_ROW_24_Right_24
*602 PHY_EDGE_ROW_2_Left_27
*603 PHY_EDGE_ROW_2_Right_2
*604 PHY_EDGE_ROW_3_Left_28
*605 PHY_EDGE_ROW_3_Right_3
*606 PHY_EDGE_ROW_4_Left_29
*607 PHY_EDGE_ROW_4_Right_4
*608 PHY_EDGE_ROW_5_Left_30
*609 PHY_EDGE_ROW_5_Right_5
*610 PHY_EDGE_ROW_6_Left_31
*611 PHY_EDGE_ROW_6_Right_6
*612 PHY_EDGE_ROW_7_Left_32
*613 PHY_EDGE_ROW_7_Right_7
*614 PHY_EDGE_ROW_8_Left_33
*615 PHY_EDGE_ROW_8_Right_8
*616 PHY_EDGE_ROW_9_Left_34
*617 PHY_EDGE_ROW_9_Right_9
*618 TAP_TAPCELL_ROW_0_50
*619 TAP_TAPCELL_ROW_0_51
*620 TAP_TAPCELL_ROW_0_52
*621 TAP_TAPCELL_ROW_0_53
*622 TAP_TAPCELL_ROW_0_54
*623 TAP_TAPCELL_ROW_10_77
*624 TAP_TAPCELL_ROW_10_78
*625 TAP_TAPCELL_ROW_10_79
*626 TAP_TAPCELL_ROW_11_80
*627 TAP_TAPCELL_ROW_11_81
*628 TAP_TAPCELL_ROW_12_82
*629 TAP_TAPCELL_ROW_12_83
*630 TAP_TAPCELL_ROW_12_84
*631 TAP_TAPCELL_ROW_13_85
*632 TAP_TAPCELL_ROW_13_86
*633 TAP_TAPCELL_ROW_14_87
*634 TAP_TAPCELL_ROW_14_88
*635 TAP_TAPCELL_ROW_14_89
*636 TAP_TAPCELL_ROW_15_90
*637 TAP_TAPCELL_ROW_15_91
*638 TAP_TAPCELL_ROW_16_92
*639 TAP_TAPCELL_ROW_16_93
*640 TAP_TAPCELL_ROW_16_94
*641 TAP_TAPCELL_ROW_17_95
*642 TAP_TAPCELL_ROW_17_96
*643 TAP_TAPCELL_ROW_18_97
*644 TAP_TAPCELL_ROW_18_98
*645 TAP_TAPCELL_ROW_18_99
*646 TAP_TAPCELL_ROW_19_100
*647 TAP_TAPCELL_ROW_19_101
*648 TAP_TAPCELL_ROW_1_55
*649 TAP_TAPCELL_ROW_1_56
*650 TAP_TAPCELL_ROW_20_102
*651 TAP_TAPCELL_ROW_20_103
*652 TAP_TAPCELL_ROW_20_104
*653 TAP_TAPCELL_ROW_21_105
*654 TAP_TAPCELL_ROW_21_106
*655 TAP_TAPCELL_ROW_22_107
*656 TAP_TAPCELL_ROW_22_108
*657 TAP_TAPCELL_ROW_22_109
*658 TAP_TAPCELL_ROW_23_110
*659 TAP_TAPCELL_ROW_23_111
*660 TAP_TAPCELL_ROW_24_112
*661 TAP_TAPCELL_ROW_24_113
*662 TAP_TAPCELL_ROW_24_114
*663 TAP_TAPCELL_ROW_24_115
*664 TAP_TAPCELL_ROW_24_116
*665 TAP_TAPCELL_ROW_2_57
*666 TAP_TAPCELL_ROW_2_58
*667 TAP_TAPCELL_ROW_2_59
*668 TAP_TAPCELL_ROW_3_60
*669 TAP_TAPCELL_ROW_3_61
*670 TAP_TAPCELL_ROW_4_62
*671 TAP_TAPCELL_ROW_4_63
*672 TAP_TAPCELL_ROW_4_64
*673 TAP_TAPCELL_ROW_5_65
*674 TAP_TAPCELL_ROW_5_66
*675 TAP_TAPCELL_ROW_6_67
*676 TAP_TAPCELL_ROW_6_68
*677 TAP_TAPCELL_ROW_6_69
*678 TAP_TAPCELL_ROW_7_70
*679 TAP_TAPCELL_ROW_7_71
*680 TAP_TAPCELL_ROW_8_72
*681 TAP_TAPCELL_ROW_8_73
*682 TAP_TAPCELL_ROW_8_74
*683 TAP_TAPCELL_ROW_9_75
*684 TAP_TAPCELL_ROW_9_76
*685 _135_
*686 _136_
*687 _137_
*688 _138_
*689 _139_
*690 _140_
*691 _141_
*692 _142_
*693 _143_
*694 _144_
*695 _145_
*696 _146_
*697 _147_
*698 _148_
*699 _149_
*700 _150_
*701 _151_
*702 _152_
*703 _153_
*704 _154_
*705 _155_
*706 _156_
*707 _157_
*708 _158_
*709 _159_
*710 _160_
*711 _161_
*712 _162_
*713 _163_
*714 _164_
*715 _165_
*716 _166_
*717 _167_
*718 _168_
*719 _169_
*720 _170_
*721 _171_
*722 _172_
*723 _173_
*724 _174_
*725 _175_
*726 _176_
*727 _177_
*728 _178_
*729 _179_
*730 _180_
*731 _181_
*732 _182_
*733 _183_
*734 _184_
*735 _185_
*736 _186_
*737 _187_
*738 _188_
*739 _189_
*740 _190_
*741 _191_
*742 _192_
*743 _193_
*744 _194_
*745 _195_
*746 _196_
*747 _197_
*748 _198_
*749 _199_
*750 _200_
*751 _201_
*752 _202_
*753 _203_
*754 _204_
*755 _205_
*756 _206_
*757 _207_
*758 _208_
*759 _209_
*760 _210_
*761 _211_
*762 _212_
*763 _213_
*764 _214_
*765 _215_
*766 _216_
*767 _217_
*768 _218_
*769 _219_
*770 _220_
*771 _221_
*772 _222_
*773 _223_
*774 _224_
*775 _225_
*776 _226_
*777 _227_
*778 _228_
*779 _229_
*780 _230_
*781 _231_
*782 _232_
*783 _233_
*784 _234_
*785 _235_
*786 _236_
*787 _237_
*788 _238_
*789 _239_
*790 _240_
*791 _241_
*792 _242_
*793 _243_
*794 _244_
*795 _245_
*796 _246_
*797 _247_
*798 _248_
*799 _249_
*800 _250_
*801 _251_
*802 _252_
*803 _253_
*804 _254_
*805 _255_
*806 _256_
*807 _257_
*808 _258_
*809 _259_
*810 _260_
*811 _261_
*812 _262_
*813 _263_
*814 _264_
*815 _265_
*816 _266_
*817 _267_
*818 _268_
*819 _269_
*820 _270_
*821 _271_
*822 _272_
*823 _273_
*824 _274_
*825 _275_
*826 _276_
*827 _277_
*828 _278_
*829 _279_
*830 _280_
*831 _281_
*832 _282_
*833 _283_
*834 _284_
*835 _285_
*836 _286_
*837 _287_
*838 _288_
*839 _289_
*840 _290_
*841 _291_
*842 _292_
*843 _293_
*844 _294_
*845 _295_
*846 _296_
*847 _297_
*848 _298_
*849 _299_
*850 _300_
*851 _301_
*852 _302_
*853 _303_
*854 _304_
*855 _305_
*856 _306_
*857 _307_
*858 _308_
*859 _309_
*860 _310_
*861 _311_
*862 _312_
*863 _313_
*864 _314_
*865 _315_
*866 _316_
*867 _317_
*868 clkbuf_0_clk
*869 clkbuf_1_0__f_clk
*870 clkbuf_1_1__f_clk
*871 clkload0
*872 fanout28
*873 fanout29
*874 fanout32
*875 fanout33
*876 fanout34
*877 fanout35
*878 fanout36
*879 fanout37
*880 fanout38
*881 fanout39
*882 fanout40
*883 hold1
*884 hold2
*885 hold3
*886 hold4
*887 input1
*888 input10
*889 input11
*890 input12
*891 input13
*892 input14
*893 input15
*894 input16
*895 input17
*896 input18
*897 input2
*898 input3
*899 input4
*900 input5
*901 input6
*902 input7
*903 input8
*904 input9
*905 max_cap30
*906 max_cap31
*907 output19
*908 output20
*909 output21
*910 output22
*911 output23
*912 output24
*913 output25
*914 output26
*915 output27

*PORTS
address[0] I
address[1] I
address[2] I
address[3] I
address[4] I
address[5] I
address[6] I
clk I
data_in[0] I
data_in[1] I
data_in[2] I
data_in[3] I
data_in[4] I
data_in[5] I
data_in[6] I
data_in[7] I
data_out[0] O
data_out[1] O
data_out[2] O
data_out[3] O
data_out[4] O
data_out[5] O
data_out[6] O
data_out[7] O
enable I
i2c_scl I
i2c_sda I
ready O
rst I
rw I

*D_NET *3 0.000515164
*CONN
*P address[0] I
*I *887:A I *D sky130_fd_sc_hd__clkbuf_1
*CAP
1 address[0] 0.000217202
2 *887:A 0.000217202
3 *887:A *789:S 0
4 *887:A *898:A 8.07604e-05
*RES
1 address[0] *887:A 47.1648 
*END

*D_NET *4 0.00121464
*CONN
*P address[1] I
*I *897:A I *D sky130_fd_sc_hd__clkbuf_1
*CAP
1 address[1] 0.000607318
2 *897:A 0
3 *4:11 0.000607318
4 *4:11 *903:A 0
*RES
1 address[1] *4:11 27.8843 
2 *4:11 *897:A 23 
*END

*D_NET *5 0.000637625
*CONN
*P address[2] I
*I *898:A I *D sky130_fd_sc_hd__clkbuf_1
*CAP
1 address[2] 0.000278432
2 *898:A 0.000278432
3 *898:A *789:S 0
4 *887:A *898:A 8.07604e-05
*RES
1 address[2] *898:A 48.2212 
*END

*D_NET *6 0.000726977
*CONN
*P address[3] I
*I *899:A I *D sky130_fd_sc_hd__clkbuf_1
*CAP
1 address[3] 0.000318614
2 *899:A 0.000318614
3 *899:A *890:A 8.97484e-05
4 *899:A *901:A 0
5 *899:A *207:73 0
*RES
1 address[3] *899:A 49.2777 
*END

*D_NET *7 0.000901682
*CONN
*P address[4] I
*I *900:A I *D sky130_fd_sc_hd__clkbuf_1
*CAP
1 address[4] 0.000450841
2 *900:A 0.000450841
3 *900:A *891:A 0
*RES
1 address[4] *900:A 47.3214 
*END

*D_NET *8 0.000578344
*CONN
*P address[5] I
*I *901:A I *D sky130_fd_sc_hd__clkbuf_1
*CAP
1 address[5] 0.000242108
2 *901:A 0.000242108
3 *901:A *892:A 8.13852e-05
4 *901:A *207:71 0
5 *901:A *227:8 1.27424e-05
6 *899:A *901:A 0
*RES
1 address[5] *901:A 47.8691 
*END

*D_NET *9 0.000670437
*CONN
*P address[6] I
*I *902:A I *D sky130_fd_sc_hd__clkbuf_1
*CAP
1 address[6] 0.000290344
2 *902:A 0.000290344
3 *902:A *892:A 0
4 *902:A *893:A 8.97484e-05
5 *902:A *207:69 0
*RES
1 address[6] *902:A 48.5734 
*END

*D_NET *10 0.00289456
*CONN
*P clk I
*I *868:A I *D sky130_fd_sc_hd__clkbuf_16
*CAP
1 clk 0.000798995
2 *868:A 0
3 *10:17 0.000798995
4 *10:17 *884:A 5.3304e-05
5 *10:17 *136:10 0.000553586
6 *10:17 *176:14 0.000689677
*RES
1 clk *10:17 36.895 
2 *10:17 *868:A 23 
*END

*D_NET *11 0.00108007
*CONN
*P data_in[0] I
*I *903:A I *D sky130_fd_sc_hd__clkbuf_1
*CAP
1 data_in[0] 0.000540034
2 *903:A 0.000540034
3 *4:11 *903:A 0
*RES
1 data_in[0] *903:A 49.7864 
*END

*D_NET *12 0.00056718
*CONN
*P data_in[1] I
*I *904:A I *D sky130_fd_sc_hd__clkbuf_1
*CAP
1 data_in[1] 0.000198023
2 *904:A 0.000198023
3 *904:A *888:A 8.13852e-05
4 *904:A *889:A 8.97484e-05
5 *904:A *230:10 0
*RES
1 data_in[1] *904:A 47.8691 
*END

*D_NET *13 0.000546399
*CONN
*P data_in[2] I
*I *888:A I *D sky130_fd_sc_hd__clkbuf_1
*CAP
1 data_in[2] 0.000232507
2 *888:A 0.000232507
3 *904:A *888:A 8.13852e-05
*RES
1 data_in[2] *888:A 47.5169 
*END

*D_NET *14 0.000692547
*CONN
*P data_in[3] I
*I *889:A I *D sky130_fd_sc_hd__clkbuf_1
*CAP
1 data_in[3] 0.0003014
2 *889:A 0.0003014
3 *889:A *896:A 0
4 *889:A *189:10 0
5 *904:A *889:A 8.97484e-05
*RES
1 data_in[3] *889:A 48.9255 
*END

*D_NET *15 0.000477793
*CONN
*P data_in[4] I
*I *890:A I *D sky130_fd_sc_hd__clkbuf_1
*CAP
1 data_in[4] 0.000194022
2 *890:A 0.000194022
3 *890:A *207:75 0
4 *899:A *890:A 8.97484e-05
*RES
1 data_in[4] *890:A 47.1648 
*END

*D_NET *16 0.00101328
*CONN
*P data_in[5] I
*I *891:A I *D sky130_fd_sc_hd__clkbuf_1
*CAP
1 data_in[5] 0.000479245
2 *891:A 0.000479245
3 *891:A *226:10 5.47927e-05
4 *900:A *891:A 0
*RES
1 data_in[5] *891:A 48.2743 
*END

*D_NET *17 0.000548222
*CONN
*P data_in[6] I
*I *892:A I *D sky130_fd_sc_hd__clkbuf_1
*CAP
1 data_in[6] 0.000233418
2 *892:A 0.000233418
3 *892:A *207:69 0
4 *892:A *207:71 0
5 *901:A *892:A 8.13852e-05
6 *902:A *892:A 0
*RES
1 data_in[6] *892:A 47.5169 
*END

*D_NET *18 0.000604382
*CONN
*P data_in[7] I
*I *893:A I *D sky130_fd_sc_hd__clkbuf_1
*CAP
1 data_in[7] 0.000216624
2 *893:A 0.000216624
3 *893:A *896:A 8.13852e-05
4 *893:A *207:67 0
5 *893:A *207:69 0
6 *902:A *893:A 8.97484e-05
*RES
1 data_in[7] *893:A 48.2212 
*END

*D_NET *19 0.00070233
*CONN
*P data_out[0] O
*I *907:X O *D sky130_fd_sc_hd__buf_2
*CAP
1 data_out[0] 7.65184e-05
2 *907:X 0.000247866
3 *19:14 0.000324384
4 data_out[0] data_out[1] 2.12457e-05
5 data_out[0] *31:17 1.5289e-05
6 *19:14 *31:17 1.70278e-05
*RES
1 *907:X *19:14 49.9 
2 *19:14 data_out[0] 0.382667 
*END

*D_NET *20 0.000755198
*CONN
*P data_out[1] O
*I *908:X O *D sky130_fd_sc_hd__buf_2
*CAP
1 data_out[1] 8.40108e-05
2 *908:X 0.000282965
3 *20:14 0.000366976
4 data_out[1] i2c_sda 0
5 *20:14 i2c_sda 0
6 data_out[0] data_out[1] 2.12457e-05
*RES
1 *908:X *20:14 49.9 
2 *20:14 data_out[1] 0.382667 
*END

*D_NET *21 0.00102293
*CONN
*P data_out[2] O
*I *909:X O *D sky130_fd_sc_hd__buf_2
*CAP
1 data_out[2] 0.000511466
2 *909:X 0.000511466
3 data_out[2] data_out[5] 0
4 data_out[2] data_out[6] 0
*RES
1 *909:X data_out[2] 49.2064 
*END

*D_NET *22 0.00102215
*CONN
*P data_out[3] O
*I *910:X O *D sky130_fd_sc_hd__buf_2
*CAP
1 data_out[3] 0.000511075
2 *910:X 0.000511075
3 data_out[3] data_out[6] 0
*RES
1 *910:X data_out[3] 49.2064 
*END

*D_NET *23 0.000667896
*CONN
*P data_out[4] O
*I *911:X O *D sky130_fd_sc_hd__buf_2
*CAP
1 data_out[4] 0.00022253
2 *911:X 0.00022253
3 data_out[4] data_out[7] 8.97484e-05
4 data_out[4] i2c_sda 8.97484e-05
5 data_out[4] *202:12 4.334e-05
*RES
1 *911:X data_out[4] 48.5734 
*END

*D_NET *24 0.00106545
*CONN
*P data_out[5] O
*I *912:X O *D sky130_fd_sc_hd__buf_2
*CAP
1 data_out[5] 0.000532727
2 *912:X 0.000532727
3 data_out[2] data_out[5] 0
*RES
1 *912:X data_out[5] 49.6829 
*END

*D_NET *25 0.00106389
*CONN
*P data_out[6] O
*I *913:X O *D sky130_fd_sc_hd__buf_2
*CAP
1 data_out[6] 0.000531944
2 *913:X 0.000531944
3 data_out[2] data_out[6] 0
4 data_out[3] data_out[6] 0
*RES
1 *913:X data_out[6] 49.6829 
*END

*D_NET *26 0.000895906
*CONN
*P data_out[7] O
*I *914:X O *D sky130_fd_sc_hd__buf_2
*CAP
1 data_out[7] 0.000177369
2 *914:X 0.000170762
3 *26:10 0.00034813
4 *26:10 *787:B2 6.65565e-05
5 *26:10 *914:A 4.334e-05
6 data_out[4] data_out[7] 8.97484e-05
*RES
1 *914:X *26:10 49.8425 
2 *26:10 data_out[7] 0.843733 
*END

*D_NET *27 0.00071816
*CONN
*P enable I
*I *894:A I *D sky130_fd_sc_hd__buf_1
*CAP
1 enable 0.000348457
2 *894:A 0.000348457
3 *894:A ready 2.12457e-05
4 *894:A *30:14 0
*RES
1 enable *894:A 49.5439 
*END

*D_NET *28 0.001583
*CONN
*P i2c_scl I
*I *737:Y O *D sky130_fd_sc_hd__nand2_4
*CAP
1 i2c_scl 0.000745416
2 *737:Y 4.2999e-05
3 *28:8 0.000788415
4 i2c_scl *58:12 0
5 *28:8 *737:B 6.17437e-06
*RES
1 *737:Y *28:8 38.6214 
2 *28:8 i2c_scl 15.0386 
*END

*D_NET *29 0.017098
*CONN
*P i2c_sda I
*I *748:A1 I *D sky130_fd_sc_hd__a221oi_1
*I *689:A I *D sky130_fd_sc_hd__inv_2
*I *767:A1 I *D sky130_fd_sc_hd__a32o_1
*I *768:A I *D sky130_fd_sc_hd__and3_1
*I *786:A I *D sky130_fd_sc_hd__or3_1
*I *777:A0 I *D sky130_fd_sc_hd__mux2_1
*I *727:A1 I *D sky130_fd_sc_hd__a221o_1
*I *867:Z O *D sky130_fd_sc_hd__ebufn_8
*CAP
1 i2c_sda 0.000481028
2 *748:A1 0
3 *689:A 2.43873e-05
4 *767:A1 0
5 *768:A 0.000623664
6 *786:A 0
7 *777:A0 0
8 *727:A1 0.000171341
9 *867:Z 0.000448344
10 *29:122 0.000453015
11 *29:92 8.35803e-05
12 *29:86 0.000846934
13 *29:79 0.000343594
14 *29:61 0.00103804
15 *29:53 0.00111069
16 *29:41 0.00216642
17 *29:20 0.00204517
18 *29:16 0.000971073
19 *29:12 0.000477026
20 *727:A1 *839:CLK 0
21 *727:A1 *147:8 4.21594e-06
22 *727:A1 *235:12 6.25245e-05
23 *768:A *768:C 6.21178e-05
24 *768:A *102:90 0.00050741
25 *768:A *160:10 5.50106e-05
26 *29:12 *720:A 7.56417e-05
27 *29:12 *722:A 2.93845e-05
28 *29:12 *80:10 1.01436e-05
29 *29:12 *126:14 2.92911e-06
30 *29:12 *167:8 0
31 *29:12 *167:12 7.1349e-05
32 *29:12 *212:67 0
33 *29:12 *219:43 1.58805e-05
34 *29:12 *233:10 3.72639e-05
35 *29:16 *219:43 0.000128723
36 *29:16 *241:31 0.000140259
37 *29:20 *760:A2 9.16459e-05
38 *29:20 *760:B1 5.41385e-05
39 *29:20 *839:CLK 5.50106e-05
40 *29:20 *839:D 1.10317e-05
41 *29:20 *839:RESET_B 1.72e-05
42 *29:20 *219:43 0.000187129
43 *29:20 *219:51 0.000226306
44 *29:20 *241:31 0.000525411
45 *29:41 *760:B1 9.63918e-05
46 *29:41 *842:CLK 0.000233367
47 *29:41 *842:D 2.93747e-05
48 *29:41 *147:8 0.0001466
49 *29:41 *195:37 0.000120171
50 *29:41 *207:33 0.000113491
51 *29:41 *215:74 0.000534669
52 *29:41 *235:12 1.69668e-05
53 *29:53 *882:A 2.33476e-05
54 *29:53 *72:10 8.41012e-05
55 *29:53 *98:40 0
56 *29:53 *147:22 0.000175323
57 *29:53 *147:33 0
58 *29:53 *147:44 0
59 *29:53 *151:10 0.000167443
60 *29:53 *195:10 0.000338229
61 *29:53 *221:10 8.53077e-05
62 *29:61 *767:A3 0
63 *29:61 *767:B1 2.39868e-05
64 *29:61 *147:44 0
65 *29:79 *777:A1 5.67058e-05
66 *29:79 *159:10 9.47917e-06
67 *29:86 *777:A1 0.00010018
68 *29:86 *160:10 9.67842e-05
69 *29:92 *152:19 6.7177e-06
70 *29:92 *160:10 0.000138727
71 *29:92 *216:72 7.8128e-05
72 *29:122 *744:B 9.98995e-05
73 *29:122 *38:8 4.334e-05
74 *29:122 *55:14 1.11421e-05
75 *29:122 *195:37 4.75704e-05
76 *29:122 *210:10 6.46875e-05
77 *29:122 *219:35 0.000169761
78 *29:122 *219:43 0
79 *29:122 *236:14 0
80 *29:122 *236:34 0
81 *29:122 *236:68 0.000241355
82 data_out[1] i2c_sda 0
83 data_out[4] i2c_sda 8.97484e-05
84 *20:14 i2c_sda 0
*RES
1 *867:Z *29:12 45.395 
2 *29:12 *29:16 16.5743 
3 *29:16 *29:20 28.0086 
4 *29:20 *727:A1 40.9621 
5 *29:20 *29:41 40.3957 
6 *29:41 *29:53 47.8764 
7 *29:53 *29:61 21.1418 
8 *29:61 i2c_sda 9.78827 
9 *29:61 *29:79 18.8425 
10 *29:79 *777:A0 23 
11 *29:79 *29:86 3.00357 
12 *29:86 *29:92 32.2579 
13 *29:92 *786:A 23 
14 *29:86 *768:A 35.5321 
15 *29:53 *767:A1 23 
16 *29:41 *689:A 23.4971 
17 *29:16 *29:122 40.7093 
18 *29:122 *748:A1 23 
*END

*D_NET *30 0.000759923
*CONN
*P ready O
*I *915:X O *D sky130_fd_sc_hd__buf_2
*CAP
1 ready 8.40108e-05
2 *915:X 0.000285328
3 *30:14 0.000369338
4 ready *31:17 0
5 *30:14 *31:17 0
6 *894:A ready 2.12457e-05
7 *894:A *30:14 0
*RES
1 *915:X *30:14 49.9 
2 *30:14 ready 0.382667 
*END

*D_NET *31 0.000673914
*CONN
*P rst I
*I *895:A I *D sky130_fd_sc_hd__buf_1
*CAP
1 rst 0.000320799
2 *895:A 0
3 *31:17 0.000320799
4 data_out[0] *31:17 1.5289e-05
5 ready *31:17 0
6 *19:14 *31:17 1.70278e-05
7 *30:14 *31:17 0
*RES
1 rst *31:17 27.1584 
2 *31:17 *895:A 23 
*END

*D_NET *32 0.00051224
*CONN
*P rw I
*I *896:A I *D sky130_fd_sc_hd__clkbuf_1
*CAP
1 rw 0.000215428
2 *896:A 0.000215428
3 *889:A *896:A 0
4 *893:A *896:A 8.13852e-05
*RES
1 rw *896:A 47.1648 
*END

*D_NET *33 0.00450372
*CONN
*I *724:A I *D sky130_fd_sc_hd__or3_1
*I *740:A1 I *D sky130_fd_sc_hd__o211a_1
*I *864:D I *D sky130_fd_sc_hd__dfrtp_1
*I *692:Y O *D sky130_fd_sc_hd__inv_2
*CAP
1 *724:A 0
2 *740:A1 0
3 *864:D 0.000564182
4 *692:Y 9.65915e-05
5 *33:39 0.000364955
6 *33:27 0.000503686
7 *33:8 0.000799504
8 *864:D *864:RESET_B 6.60381e-05
9 *864:D *176:14 5.88565e-05
10 *864:D *215:46 0.000204829
11 *864:D *221:40 0.000192087
12 *33:8 *742:B 0
13 *33:8 *215:46 4.98718e-06
14 *33:8 *221:36 0.000138727
15 *33:8 *221:40 3.47781e-05
16 *33:8 *222:8 0
17 *33:27 *742:B 2.18286e-05
18 *33:27 *821:A 0.000309168
19 *33:27 *137:10 0.000427788
20 *33:27 *177:42 0.000159854
21 *33:27 *221:36 5.3304e-05
22 *33:39 *724:C 9.77405e-05
23 *33:39 *740:B1 3.36312e-06
24 *33:39 *742:B 0.000140931
25 *33:39 *885:A 5.56279e-05
26 *33:39 *34:8 2.07484e-05
27 *33:39 *40:12 8.87281e-05
28 *33:39 *177:42 4.29235e-05
29 *33:39 *224:8 5.24907e-05
*RES
1 *692:Y *33:8 40.2579 
2 *33:8 *864:D 49.8071 
3 *33:8 *33:27 21.5043 
4 *33:27 *33:39 38.12 
5 *33:39 *740:A1 23 
6 *33:27 *724:A 23 
*END

*D_NET *34 0.00256376
*CONN
*I *865:D I *D sky130_fd_sc_hd__dfrtp_1
*I *740:X O *D sky130_fd_sc_hd__o211a_1
*CAP
1 *865:D 6.14305e-05
2 *740:X 0.000770873
3 *34:8 0.000832304
4 *865:D *738:B 1.01436e-05
5 *865:D *177:27 0.000141888
6 *865:D *178:8 4.5882e-05
7 *34:8 *740:A2 0.00021028
8 *34:8 *885:A 3.32688e-05
9 *34:8 *179:6 8.7124e-05
10 *34:8 *179:14 0.000349818
11 *33:39 *34:8 2.07484e-05
*RES
1 *740:X *34:8 49.1029 
2 *34:8 *865:D 39.9057 
*END

*D_NET *35 0.00069487
*CONN
*I *866:D I *D sky130_fd_sc_hd__dfrtp_1
*I *741:Y O *D sky130_fd_sc_hd__xnor2_1
*CAP
1 *866:D 0
2 *741:Y 0.000274119
3 *35:10 0.000274119
4 *35:10 *741:A 3.71251e-05
5 *35:10 *866:CLK 0.000109506
6 *35:10 *136:10 0
*RES
1 *741:Y *35:10 43.4686 
2 *35:10 *866:D 38 
*END

*D_NET *36 0.00185774
*CONN
*I *863:D I *D sky130_fd_sc_hd__dfrtp_1
*I *742:Y O *D sky130_fd_sc_hd__nor3_1
*CAP
1 *863:D 0
2 *742:Y 0.00059976
3 *36:10 0.00059976
4 *36:10 *724:C 2.64616e-05
5 *36:10 *742:C 6.40973e-05
6 *36:10 *818:A 0.000199701
7 *36:10 *863:RESET_B 0
8 *36:10 *215:10 0.00021289
9 *36:10 *215:12 0.000155068
*RES
1 *742:Y *36:10 49.02 
2 *36:10 *863:D 38 
*END

*D_NET *37 0.000951348
*CONN
*I *836:D I *D sky130_fd_sc_hd__dfrtp_1
*I *745:Y O *D sky130_fd_sc_hd__nor2_1
*CAP
1 *836:D 0
2 *745:Y 0.000233721
3 *37:10 0.000233721
4 *37:10 *98:12 0.000244626
5 *37:10 *98:40 8.85189e-05
6 *37:10 *147:16 5.41385e-05
7 *37:10 *215:74 9.66212e-05
*RES
1 *745:Y *37:10 43.4686 
2 *37:10 *836:D 38 
*END

*D_NET *38 0.00107181
*CONN
*I *837:D I *D sky130_fd_sc_hd__dfrtp_2
*I *746:X O *D sky130_fd_sc_hd__and2_1
*CAP
1 *837:D 0.000448411
2 *746:X 4.95001e-05
3 *38:8 0.000497911
4 *38:8 *55:14 1.14452e-05
5 *38:8 *219:43 2.1199e-05
6 *29:122 *38:8 4.334e-05
*RES
1 *746:X *38:8 39.2014 
2 *38:8 *837:D 43.4064 
*END

*D_NET *39 0.00028659
*CONN
*I *839:D I *D sky130_fd_sc_hd__dfrtp_1
*I *744:X O *D sky130_fd_sc_hd__and2_1
*CAP
1 *839:D 1.47919e-05
2 *744:X 3.55839e-05
3 *39:8 5.03758e-05
4 *39:8 *235:12 8.85189e-05
5 *39:8 *243:8 8.62876e-05
6 *29:20 *839:D 1.10317e-05
*RES
1 *744:X *39:8 39.2014 
2 *39:8 *839:D 38.2123 
*END

*D_NET *40 0.00112751
*CONN
*I *840:D I *D sky130_fd_sc_hd__dfrtp_1
*I *743:X O *D sky130_fd_sc_hd__and2_1
*CAP
1 *840:D 0
2 *743:X 0.000318921
3 *40:12 0.000318921
4 *40:12 *863:RESET_B 4.06512e-05
5 *40:12 *871:A 1.37349e-05
6 *40:12 *61:8 2.4754e-05
7 *40:12 *219:69 1.32314e-05
8 *40:12 *224:8 0.000194309
9 *40:12 *234:48 0.000106818
10 *40:12 *240:8 7.44161e-06
11 *33:39 *40:12 8.87281e-05
*RES
1 *743:X *40:12 44.7943 
2 *40:12 *840:D 38 
*END

*D_NET *41 0.000927356
*CONN
*I *835:D I *D sky130_fd_sc_hd__dfstp_1
*I *735:X O *D sky130_fd_sc_hd__a311o_1
*CAP
1 *835:D 0
2 *735:X 0.00016275
3 *41:12 0.00016275
4 *41:12 *734:A 4.00259e-06
5 *41:12 *760:A3 9.18236e-05
6 *41:12 *135:8 2.32004e-05
7 *41:12 *194:18 0.00021346
8 *41:12 *194:29 1.22822e-05
9 *41:12 *234:8 0.000257088
*RES
1 *735:X *41:12 28.5721 
2 *41:12 *835:D 23 
*END

*D_NET *42 0.000351216
*CONN
*I *841:D I *D sky130_fd_sc_hd__dfrtp_1
*I *727:X O *D sky130_fd_sc_hd__a221o_1
*CAP
1 *841:D 0
2 *727:X 0.000146214
3 *42:10 0.000146214
4 *42:10 *719:A 0
5 *42:10 *839:CLK 4.48568e-05
6 *42:10 *131:6 1.39317e-05
*RES
1 *727:X *42:10 40.5271 
2 *42:10 *841:D 38 
*END

*D_NET *43 0.00115524
*CONN
*I *842:D I *D sky130_fd_sc_hd__dfrtp_1
*I *731:X O *D sky130_fd_sc_hd__a32o_1
*CAP
1 *842:D 2.63249e-05
2 *731:X 0.000426583
3 *43:10 0.000452908
4 *43:10 *54:8 0